#======================================================================

# CRYSTAL DATA

#----------------------------------------------------------------------

data_VESTA_phase_1


_chemical_name_common                  '1AL1'
_cell_length_a                         62.35000
_cell_length_b                         62.35000
_cell_length_c                         62.35000
_cell_angle_alpha                      90
_cell_angle_beta                       90
_cell_angle_gamma                      90
_space_group_name_H-M_alt              'I 41 3 2'
_space_group_IT_number                 214

loop_
_space_group_symop_operation_xyz
   'x, y, z'
   '-x+1/2, -y, z+1/2'
   '-x, y+1/2, -z+1/2'
   'x+1/2, -y+1/2, -z'
   'z, x, y'
   'z+1/2, -x+1/2, -y'
   '-z+1/2, -x, y+1/2'
   '-z, x+1/2, -y+1/2'
   'y, z, x'
   '-y, z+1/2, -x+1/2'
   'y+1/2, -z+1/2, -x'
   '-y+1/2, -z, x+1/2'
   'y+3/4, x+1/4, -z+1/4'
   '-y+3/4, -x+3/4, -z+3/4'
   'y+1/4, -x+1/4, z+3/4'
   '-y+1/4, x+3/4, z+1/4'
   'x+3/4, z+1/4, -y+1/4'
   '-x+1/4, z+3/4, y+1/4'
   '-x+3/4, -z+3/4, -y+3/4'
   'x+1/4, -z+1/4, y+3/4'
   'z+3/4, y+1/4, -x+1/4'
   'z+1/4, -y+1/4, x+3/4'
   '-z+1/4, y+3/4, x+1/4'
   '-z+3/4, -y+3/4, -x+3/4'
   'x+1/2, y+1/2, z+1/2'
   '-x, -y+1/2, z'
   '-x+1/2, y, -z'
   'x, -y, -z+1/2'
   'z+1/2, x+1/2, y+1/2'
   'z, -x, -y+1/2'
   '-z, -x+1/2, y'
   '-z+1/2, x, -y'
   'y+1/2, z+1/2, x+1/2'
   '-y+1/2, z, -x'
   'y, -z, -x+1/2'
   '-y, -z+1/2, x'
   'y+1/4, x+3/4, -z+3/4'
   '-y+1/4, -x+1/4, -z+1/4'
   'y+3/4, -x+3/4, z+1/4'
   '-y+3/4, x+1/4, z+3/4'
   'x+1/4, z+3/4, -y+3/4'
   '-x+3/4, z+1/4, y+3/4'
   '-x+1/4, -z+1/4, -y+1/4'
   'x+3/4, -z+3/4, y+1/4'
   'z+1/4, y+3/4, -x+3/4'
   'z+3/4, -y+3/4, x+1/4'
   '-z+3/4, y+1/4, x+3/4'
   '-z+1/4, -y+1/4, -x+1/4'

loop_
   _atom_site_label
   _atom_site_occupancy
   _atom_site_fract_x
   _atom_site_fract_y
   _atom_site_fract_z
   _atom_site_adp_type
   _atom_site_B_iso_or_equiv
   _atom_site_type_symbol
   C          1.0     0.065230      0.131170      0.250820     Biso 25.000000 C
   O          1.0     0.011920      0.107490      0.174160     Biso 25.000000 O
   CH3        1.0     0.004520      0.141170      0.191670     Biso 25.000000 C
   N          1.0     0.053500      0.141470      0.265670     Biso 25.000000 N
   CA         1.0     0.060580      0.162380      0.272740     Biso 25.000000 C
   C          1.0     0.049300      0.181810      0.263250     Biso 25.000000 C
   O          1.0     0.050260      0.200230      0.271570     Biso 25.000000 O
   CB         1.0     0.060560      0.162860      0.296780     Biso 25.000000 C
   CG         1.0     0.036930      0.165190      0.305060     Biso 25.000000 C
   CD         1.0     0.040800      0.165260      0.329370     Biso 25.000000 C
   OE1        1.0     0.056200      0.176720      0.334460     Biso 25.000000 O
   OE2        1.0     0.028530      0.152420      0.338340     Biso 25.000000 O
   N          1.0     0.004510      0.071390      0.211510     Biso 25.000000 N
   CA         1.0     0.017790      0.055110      0.221550     Biso 25.000000 C
   C          1.0     0.034500      0.050340      0.203600     Biso 25.000000 C
   O          1.0     0.031950      0.198790      0.040270     Biso 25.000000 O
   CB         1.0     0.026640      0.061870      0.243070     Biso 25.000000 C
   CG         1.0     0.043980      0.047250      0.252630     Biso 25.000000 C
   CD1        1.0     0.031020      0.268150      0.034770     Biso 25.000000 C
   CD2        1.0     0.060740      0.263010      0.061360     Biso 25.000000 C
   N          1.0     0.040860      0.068020      0.192890     Biso 25.000000 N
   CA         1.0     0.055970      0.065360      0.175010     Biso 25.000000 C
   C          1.0     0.044580      0.051530      0.157970     Biso 25.000000 C
   O          1.0     0.038310      0.147410      0.054630     Biso 25.000000 O
   CB         1.0     0.065630      0.086140      0.166667     Biso 25.000000 C
   CG         1.0     0.081990      0.082580      0.148290     Biso 25.000000 C
   CD1        1.0     0.072800      0.156690      0.102510     Biso 25.000000 C
   CD2        1.0     0.086590      0.102930      0.136270     Biso 25.000000 C
   N          1.0     0.024090      0.054960      0.155620     Biso 25.000000 N
   CA         1.0     0.010650      0.043670      0.140300     Biso 25.000000 C
   C          1.0     0.009590      0.019900      0.145910     Biso 25.000000 C
   O          1.0     0.005690      0.132790      0.014670     Biso 25.000000 O
   CB         1.0     0.110310      0.197150      0.262000     Biso 25.000000 C
   CG         1.0     0.132650      0.197800      0.271860     Biso 25.000000 C
   CD         1.0     0.130900      0.196510      0.296030     Biso 25.000000 C
   CE         1.0     0.149140      0.208200      0.306980     Biso 25.000000 C
   NZ         1.0     0.168860      0.195040      0.306680     Biso 25.000000 N
   N          1.0     0.002930      0.015670      0.165620     Biso 25.000000 N
   CA         1.0     0.001150      0.007150      0.328150     Biso 25.000000 C
   C          1.0     0.017080      0.330080      0.023130     Biso 25.000000 C
   O          1.0     0.025240      0.032770      0.342300     Biso 25.000000 O
   CB         1.0     0.057170      0.260440      0.259900     Biso 25.000000 C
   CG         1.0     0.056850      0.254330      0.283810     Biso 25.000000 C
   N          1.0     0.008020      0.319270      0.038860     Biso 25.000000 N
   CA         1.0     0.016870      0.319460      0.060960     Biso 25.000000 C
   C          1.0     0.092400      0.271280      0.182030     Biso 25.000000 C
   O          1.0     0.097820      0.288970      0.174850     Biso 25.000000 O
   CB         1.0     0.056550      0.252400      0.174350     Biso 25.000000 C
   CG         1.0     0.058940      0.254020      0.150400     Biso 25.000000 C
   CD1        1.0     0.044120      0.270560      0.140190     Biso 25.000000 C
   CD2        1.0     0.017800      0.196210      0.109650     Biso 25.000000 C
   N          1.0     0.105630      0.255120      0.184790     Biso 25.000000 N
   CA         1.0     0.128340      0.255240      0.179180     Biso 25.000000 C
   C          1.0     0.139850      0.273940      0.189570     Biso 25.000000 C
   O          1.0     0.154570      0.282430      0.178900     Biso 25.000000 O
   CB         1.0     0.017210      0.111800      0.066930     Biso 25.000000 C
   CG         1.0     0.033090      0.108290      0.084970     Biso 25.000000 C
   CD1        1.0     0.056600      0.111450      0.079150     Biso 25.000000 C
   CD2        1.0     0.031790      0.084950      0.092680     Biso 25.000000 C
   N          1.0     0.134400      0.281000      0.208730     Biso 25.000000 N
   CA         1.0     0.145820      0.298590      0.219270     Biso 25.000000 C
   C          1.0     0.038760      0.070970      0.390440     Biso 25.000000 C
   O          1.0     0.035320      0.085870      0.403400     Biso 25.000000 O
   CB         1.0     0.006960      0.050790      0.391180     Biso 25.000000 C
   CG         1.0     0.133390      0.280550      0.254110     Biso 25.000000 C
   CD         1.0     0.126460      0.285970      0.276780     Biso 25.000000 C
   OE1        1.0     0.140120      0.286730      0.290910     Biso 25.000000 O
   OE2        1.0     0.106720      0.289950      0.278370     Biso 25.000000 O
   N          1.0     0.047470      0.071990      0.371310     Biso 25.000000 N
   CA         1.0     0.056130      0.091830      0.362040     Biso 25.000000 C
   C          1.0     0.079360      0.095890      0.368540     Biso 25.000000 C
   O          1.0     0.087170      0.114080      0.366900     Biso 25.000000 O
   CB         1.0     0.056470      0.089890      0.337520     Biso 25.000000 C
   CG         1.0     0.047540      0.107870      0.323600     Biso 25.000000 C
   CD         1.0     0.028100      0.100770      0.311220     Biso 25.000000 C
   OE1        1.0     0.025740      0.102690      0.292030     Biso 25.000000 O
   OE2        1.0     0.015070      0.091870      0.323690     Biso 25.000000 O
   N          1.0     0.125290      0.329120      0.159720     Biso 25.000000 N
   CA         1.0     0.131240      0.329800      0.137130     Biso 25.000000 C
   C          1.0     0.132630      0.152100      0.341400     Biso 25.000000 C
   O          1.0     0.145390      0.167210      0.341450     Biso 25.000000 O
   CB         1.0     0.128670      0.131160      0.306690     Biso 25.000000 C
   CG         1.0     0.108530      0.117720      0.303810     Biso 25.000000 C
   CD1        1.0     0.096320      0.315110      0.111900     Biso 25.000000 C
   CD2        1.0     0.105260      0.115780      0.279810     Biso 25.000000 C
   N          1.0     0.113650      0.152590      0.350690     Biso 25.000000 N
   CA         1.0     0.105450      0.170790      0.362870     Biso 25.000000 C
   C          1.0     0.100450      0.190160      0.348540     Biso 25.000000 C
   O          1.0     0.093260      0.188410      0.330040     Biso 25.000000 O
   CB         1.0     0.085720      0.164570      0.375950     Biso 25.000000 C
   N          1.0     0.104580      0.208730      0.358500     Biso 25.000000 N
   CA         1.0     0.101840      0.230210      0.350380     Biso 25.000000 C
   C          1.0     0.100940      0.231830      0.325830     Biso 25.000000 C
   O          1.0     0.116280      0.241720      0.317070     Biso 25.000000 O
   OXT        1.0     0.085000      0.223540      0.316620     Biso 25.000000 O
   S          0.5000  0.003740      0.374680      0.254830     Biso 25.000000 S
   O1         0.5000  0.026460      0.367500      0.251080     Biso 25.000000 O
   O2         0.5000  0.000980      0.106350      0.241020     Biso 25.000000 O
   O3         0.5000  0.000290      0.106490      0.239050     Biso 25.000000 O
   O4         0.5000  0.027910      0.369020      0.250830     Biso 25.000000 O
